12

 C                  0.03919197    1.03580426    0.24608191
 C                  1.03630715   -0.03000519   -0.24525457
 C                 -1.04462439    0.03926962   -0.20542758
 C                 -0.03087480   -1.04506844    0.20460016
 H                  1.13593254   -0.01212518   -1.31045647
 H                  2.03533575   -0.07123894    0.13572001
 H                  0.06282279    1.13319255    1.31137864
 H                  0.06520058    2.03564531   -0.13410411
 H                 -1.18348151    0.06508878   -1.26606516
 H                 -2.02889093    0.06406033    0.21350534
 H                 -0.07164546   -2.02846644   -0.21512131
 H                 -0.01527389   -1.18615590    1.26514292


